
  EPA STORM WATER MANAGEMENT MODEL - VERSION 5.1 (Build 5.1.010)
  --------------------------------------------------------------

  
  ERROR 209: undefined object t1 at line 56 of [SUBCATCHMENT] section:
  SC2             	t1                S5              	100     	100     	2500    	0.5     	0       	               
