
  EPA STORM WATER MANAGEMENT MODEL - VERSION 5.1 (Build 5.1.010)
  --------------------------------------------------------------

  
  ERROR 211: invalid number 01:00:00 at line 28 of [OPTION] section:
  VARIABLE_STEP